Version 4
SHEET 1 1844 916
WIRE 1840 -208 672 -208
WIRE 1392 -144 1376 -144
WIRE 1488 -144 1456 -144
WIRE 128 -80 -208 -80
WIRE 640 -80 192 -80
WIRE 1376 -48 1376 -144
WIRE 1376 -48 1296 -48
WIRE 1392 -48 1376 -48
WIRE 1488 -48 1488 -144
WIRE 1488 -48 1472 -48
WIRE 1232 0 1216 0
WIRE 272 32 272 16
WIRE 448 48 448 32
WIRE 1424 48 1424 32
WIRE 1376 64 1376 -48
WIRE 1392 64 1376 64
WIRE 1488 80 1488 -48
WIRE 1488 80 1456 80
WIRE 1600 80 1488 80
WIRE 1712 80 1600 80
WIRE 1232 96 1232 80
WIRE 1392 96 1232 96
WIRE 288 112 272 112
WIRE 1232 112 1232 96
WIRE 464 128 448 128
WIRE 1712 160 1712 144
WIRE 1600 176 1600 160
WIRE 1232 208 1232 192
WIRE 16 240 -48 240
WIRE 672 240 672 -208
WIRE 1840 240 1840 -208
WIRE 1840 240 672 240
WIRE 1648 272 672 272
WIRE 16 336 16 320
WIRE 1232 352 1216 352
WIRE 1328 352 1296 352
WIRE -208 416 -208 -80
WIRE 128 416 128 -80
WIRE 128 416 -208 416
WIRE 192 416 192 -80
WIRE 640 416 640 -80
WIRE 640 416 192 416
WIRE 1216 448 1216 352
WIRE 1232 448 1216 448
WIRE 1328 448 1328 352
WIRE 1328 448 1312 448
WIRE 1072 496 1056 496
WIRE 1264 544 1264 528
WIRE 1216 560 1216 448
WIRE 1232 560 1216 560
WIRE 1328 576 1328 448
WIRE 1328 576 1296 576
WIRE 1424 576 1328 576
WIRE 1552 576 1424 576
WIRE 976 592 944 592
WIRE 1072 592 1072 576
WIRE 1072 592 1056 592
WIRE 1232 592 1072 592
WIRE 1552 656 1552 640
WIRE 1424 672 1424 656
WIRE 672 720 672 272
WIRE 1648 720 1648 272
WIRE 1648 720 672 720
FLAG -48 240 0
FLAG 16 160 Val
FLAG -128 80 Voffset
FLAG 1216 0 Voffset
FLAG 288 272 Vin
FLAG 1232 208 0
FLAG -128 160 0
FLAG 288 352 0
FLAG 1600 80 Vout1
FLAG 272 16 Vin
FLAG 272 192 0
FLAG 1600 176 0
FLAG 1424 112 0
FLAG 1424 32 Val
FLAG 288 112 Vin_scaled
FLAG 1712 160 0
FLAG 16 336 -Val
FLAG 1296 -48 Vin_scaled
FLAG 1424 576 Vout2
FLAG 1424 672 0
FLAG 1264 608 0
FLAG 1264 528 Val
FLAG 1552 656 0
FLAG 1136 448 0
FLAG 944 592 Vin_scaled_1
FLAG 1056 496 Voffset
FLAG 448 32 Vin
FLAG 448 208 0
FLAG 464 128 Vin_scaled_1
SYMBOL voltage 16 144 R0
WINDOW 123 0 0 Left 0
WINDOW 39 0 0 Left 0
SYMATTR InstName V1
SYMATTR Value 5
SYMBOL res 1216 -16 R0
WINDOW 3 32 76 Left 2
SYMATTR Value 51k
SYMATTR InstName R1
SYMBOL res 1216 96 R0
SYMATTR InstName R2
SYMATTR Value 10k
SYMBOL res 1488 -64 R90
WINDOW 0 0 56 VBottom 2
WINDOW 3 32 56 VTop 2
SYMATTR InstName R3
SYMATTR Value 89k
SYMBOL voltage -128 64 R0
WINDOW 123 0 0 Left 0
WINDOW 39 0 0 Left 0
SYMATTR InstName V3
SYMATTR Value 5
SYMBOL voltage 288 256 R0
WINDOW 123 0 0 Left 0
WINDOW 39 0 0 Left 0
SYMATTR InstName V4
SYMATTR Value SINE(0 15 1000 0 0 0 10)
SYMBOL res 256 16 R0
SYMATTR InstName R7
SYMATTR Value 812k
SYMBOL res 256 96 R0
SYMATTR InstName R8
SYMATTR Value 100k
SYMBOL res 1584 64 R0
SYMATTR InstName R4
SYMATTR Value 100k
SYMBOL cap 1696 80 R0
SYMATTR InstName C1
SYMATTR Value 10p
SYMBOL voltage 16 224 R0
WINDOW 123 0 0 Left 0
WINDOW 39 0 0 Left 0
SYMATTR InstName V2
SYMATTR Value 5
SYMBOL Opamps\\LTC6240 1424 80 R0
SYMATTR InstName U1
SYMBOL cap 1456 -160 R90
WINDOW 0 0 32 VBottom 2
WINDOW 3 32 32 VTop 2
SYMATTR InstName C3
SYMATTR Value 10pf
SYMBOL res 1056 480 R0
WINDOW 3 32 76 Left 2
SYMATTR Value 210k
SYMATTR InstName R5
SYMBOL res 1072 576 R90
WINDOW 0 0 56 VBottom 2
WINDOW 3 32 56 VTop 2
SYMATTR InstName R9
SYMATTR Value 10k
SYMBOL res 1328 432 R90
WINDOW 0 0 56 VBottom 2
WINDOW 3 32 56 VTop 2
SYMATTR InstName R10
SYMATTR Value 10k
SYMBOL res 1232 432 R90
WINDOW 0 0 56 VBottom 2
WINDOW 3 32 56 VTop 2
SYMATTR InstName R11
SYMATTR Value 100k
SYMBOL res 1408 560 R0
SYMATTR InstName R12
SYMATTR Value 100k
SYMBOL cap 1536 576 R0
SYMATTR InstName C2
SYMATTR Value 10p
SYMBOL Opamps\\LTC6240 1264 576 R0
SYMATTR InstName U2
SYMBOL cap 1296 336 R90
WINDOW 0 0 32 VBottom 2
WINDOW 3 32 32 VTop 2
SYMATTR InstName C4
SYMATTR Value 10pf
SYMBOL res 432 32 R0
SYMATTR InstName R6
SYMATTR Value 812k
SYMBOL res 432 112 R0
SYMATTR InstName R13
SYMATTR Value 100k
TEXT 384 -40 Left 2 ;Signal generation
TEXT -112 464 Left 2 !.tran 10ms
TEXT -80 -40 Left 2 ;Power supplies
TEXT 712 -112 Left 2 ;Inverting amplifier and shifter
TEXT 712 336 Left 2 ;Non inverting amplifier and shifter
TEXT 712 56 Left 2 ;Capacitor is put to stabilize
TEXT 688 88 Left 2 ;the opamp and avoid oscillations
